CMD  PROMPT('OpenAPI Module Generator')

PARM KWD(TMPLDIR) TYPE(*CHAR) LEN(1000) KEYPARM(*NO) PROMPT('Template Directory') CASE(*MIXED)
PARM KWD(DOCPATH) TYPE(*CHAR) LEN(1000) KEYPARM(*NO) PROMPT('OpenAPI Document Path') CASE(*MIXED)
PARM KWD(MODPATH) TYPE(*CHAR) LEN(1000) KEYPARM(*NO) PROMPT('ILE Module Source Path') CASE(*MIXED)